__5ws0_B_rec_4uxb_p34_lig_min.pdb
 OpenBabel10201904553D

 22 24  0  0  0  0  0  0  0  0999 V2000
  -11.8970   -6.3270    7.6330 C   0  0  0  0  0  0  0  0  0  0  0  0
  -10.6770   -5.7200    7.9780 C   0  0  0  0  0  0  0  0  0  0  0  0
  -10.2410   -4.5840    7.2740 C   0  0  0  0  0  0  0  0  0  0  0  0
   -8.9530   -3.8660    7.5570 C   0  0  0  0  0  0  0  0  0  0  0  0
   -8.0610   -4.2980    8.5440 C   0  0  0  0  0  0  0  0  0  0  0  0
   -6.8960   -3.5700    8.7920 C   0  0  0  0  0  0  0  0  0  0  0  0
   -6.5830   -2.4500    8.0170 C   0  0  0  0  0  0  0  0  0  0  0  0
   -7.4550   -2.0300    7.0110 C   0  0  0  0  0  0  0  0  0  0  0  0
   -8.6410   -2.7350    6.7800 C   0  0  0  0  0  0  0  0  0  0  0  0
   -9.5950   -2.2890    5.7100 C   0  0  0  0  0  0  0  0  0  0  0  0
   -9.3560   -1.2780    5.0160 O   0  0  0  0  0  0  0  0  0  0  0  0
  -10.7430   -2.9490    5.4830 N   0  0  0  0  0  0  0  0  0  0  0  0
  -11.1110   -4.0350    6.1800 C   0  0  0  0  0  0  0  0  0  0  0  0
  -12.3120   -4.6690    5.8740 C   0  0  0  0  0  0  0  0  0  0  0  0
  -12.6600   -5.8330    6.5580 C   0  0  0  0  0  0  0  0  0  0  0  0
  -13.1870   -7.5650    9.2900 C   0  0  0  0  0  0  0  0  0  0  0  0
  -13.1850   -8.5710    9.9860 O   0  0  0  0  0  0  0  0  0  0  0  0
  -12.3000   -7.4600    8.2780 N   0  0  0  0  0  0  0  0  0  0  0  0
  -14.2600   -6.5000    9.5300 C   0  0  0  0  0  0  0  0  0  0  0  0
  -13.9100   -5.4940   11.8230 C   0  0  0  0  0  0  0  0  0  0  0  0
  -13.8770   -5.3580   10.3720 N   0  0  0  0  0  0  0  0  0  0  0  0
  -13.5090   -4.0650    9.8030 C   0  0  0  0  0  0  0  0  0  0  0  0
  1 15  2  0  0  0  0
  1  2  1  0  0  0  0
  1 18  1  0  0  0  0
  2  3  2  0  0  0  0
  3 13  1  0  0  0  0
  3  4  1  0  0  0  0
  4  9  2  0  0  0  0
  4  5  1  0  0  0  0
  5  6  2  0  0  0  0
  6  7  1  0  0  0  0
  7  8  2  0  0  0  0
  8  9  1  0  0  0  0
  9 10  1  0  0  0  0
 10 11  2  0  0  0  0
 10 12  1  0  0  0  0
 12 13  1  0  0  0  0
 13 14  2  0  0  0  0
 14 15  1  0  0  0  0
 16 18  1  0  0  0  0
 16 19  1  0  0  0  0
 16 17  2  0  0  0  0
 19 21  1  0  0  0  0
 20 21  1  0  0  0  0
 21 22  1  0  0  0  0
M  END
>  <COMPND>
    UNNAMED

>  <AUTHOR>
    GENERATED BY OPEN BABEL 2.4.90

>  <MASTER>
        0    0    0    0    0    0    0    0   22    0   22    0

