cleaned_docked_pose.pdb
 OpenBabel11282414373D

 18  7  0  0  0  0  0  0  0  0999 V2000
    3.0280  -12.1630  -13.4990 N   0  0  0  0  0  0  0  0  0  0  0  0
    2.2690  -12.7040  -13.9400 H   0  0  0  0  0  0  0  0  0  0  0  0
    3.1470  -12.2700  -12.1070 *   0  0  0  0  0  0  0  0  0  0  0  0
    1.4760  -11.9590   -6.6980 O   0  0  0  0  0  0  0  0  0  0  0  0
    2.2060  -12.1620   -7.7150 *   0  0  0  0  0  0  0  0  0  0  0  0
    3.5070  -12.4930   -7.5800 N   0  0  0  0  0  0  0  0  0  0  0  0
    1.6290  -12.0180   -9.0170 *   0  0  0  0  0  0  0  0  0  0  0  0
    4.3400  -12.6450   -8.6060 *   0  0  0  0  0  0  0  0  0  0  0  0
    2.4670  -12.2110  -10.0440 *   0  0  0  0  0  0  0  0  0  0  0  0
    3.8190  -12.4890   -9.8590 *   0  0  0  0  0  0  0  0  0  0  0  0
    2.1020  -12.0970  -11.2870 N   0  0  0  0  0  0  0  0  0  0  0  0
    4.6830  -12.5550  -11.3360 S   0  0  0  0  0  0  0  0  0  0  0  0
    4.0000  -12.8500   -6.3100 C   0  0  0  0  0  0  0  0  0  0  0  0
    4.1230  -14.3550   -6.2590 C   0  0  0  0  0  0  0  0  0  0  0  0
    3.8020  -11.4260  -14.3250 C   0  0  0  0  0  0  0  0  0  0  0  0
    4.4300  -11.8850  -15.2720 O   0  0  0  0  0  0  0  0  0  0  0  0
    3.7500  -10.1700  -14.0070 O   0  0  0  0  0  0  0  0  0  0  0  0
    4.8030   -9.2770  -13.6030 C   0  0  0  0  0  0  0  0  0  0  0  0
  2  1  1  0  0  0  0
  6 13  1  0  0  0  0
 13 14  1  0  0  0  0
 15 17  1  0  0  0  0
 15  1  1  0  0  0  0
 16 15  2  0  0  0  0
 17 18  1  0  0  0  0
M  END
$$$$
